9
cyclopropane
C          0.12460        1.60294        0.21587
C         -0.09614        0.13639       -0.02331
C         -0.55329        1.14082       -1.04254
H         -0.85135       -0.36770        0.56863
H          0.76584       -0.47549       -0.26295
H         -1.61820        1.31718       -1.14108
H         -0.00101        1.20938       -1.97266
H          1.13613        1.98457        0.13826
H         -0.48106        2.09237        0.96984