18
Cyclohexane
C      1.367908000      1.836044000     -0.049671000
C      2.329589000      3.011988000     -0.044238000
C      3.630888000      2.632672000      0.661249000
C      4.247092000      1.383956000      0.049671000
C      3.285411000      0.208012000      0.044238000
C      1.984112000      0.587328000     -0.661249000
H      2.524936000      3.113740000     -0.900292000
H      1.933922000      3.936128000      0.506802000
H      3.388552000      2.469096000      1.674854000
H      4.348450000      3.220000000      0.605369000
H      1.030575000      1.607424000      0.972471000
H      0.592407000      1.921052000     -0.581309000
H      4.584425000      1.612576000     -0.972471000
H      5.022593000      1.298948000      0.581309000
H      2.226448000      0.750904000     -1.674854000
H      1.266550000     -0.000000000     -0.605369000
H      3.090064000      0.106260000      0.900292000
H      3.681078000     -0.716128000     -0.506802000